Version 4
SHEET 1 880 1364
WIRE -752 64 -752 16
WIRE -752 64 -848 64
WIRE -656 64 -752 64
WIRE -496 64 -656 64
WIRE -336 64 -416 64
WIRE -272 64 -336 64
WIRE -48 64 -208 64
WIRE 32 64 -48 64
WIRE 160 64 32 64
WIRE 256 64 160 64
WIRE 256 80 256 64
WIRE -848 128 -848 64
WIRE -336 128 -336 64
WIRE -752 144 -752 64
WIRE -656 144 -656 64
WIRE -432 144 -496 144
WIRE -48 144 -48 64
WIRE 32 144 32 64
WIRE 256 176 256 160
WIRE 400 176 256 176
WIRE -432 192 -432 144
WIRE -432 192 -496 192
WIRE 160 192 160 144
WIRE 256 192 256 176
WIRE -432 208 -432 192
WIRE -384 208 -432 208
WIRE -848 272 -848 208
WIRE -752 272 -752 208
WIRE -752 272 -848 272
WIRE -656 272 -656 208
WIRE -656 272 -752 272
WIRE -496 272 -656 272
WIRE -336 272 -336 224
WIRE -336 272 -496 272
WIRE -48 272 -48 208
WIRE -48 272 -336 272
WIRE 32 272 32 208
WIRE 32 272 -48 272
WIRE 160 272 32 272
WIRE 256 272 160 272
WIRE -336 320 -336 272
WIRE -816 992 -816 928
WIRE -816 992 -880 992
WIRE 0 1008 -64 1008
WIRE 144 1008 64 1008
WIRE 384 1040 320 1040
WIRE 96 1056 96 960
WIRE 96 1056 32 1056
WIRE -400 1072 -400 1008
WIRE -432 1088 -592 1088
WIRE 32 1088 32 1056
WIRE -880 1104 -880 992
WIRE -304 1104 -368 1104
WIRE -192 1104 -304 1104
WIRE -64 1104 -64 1008
WIRE -64 1104 -112 1104
WIRE 0 1104 -64 1104
WIRE -432 1120 -496 1120
WIRE 144 1120 144 1008
WIRE 144 1120 64 1120
WIRE 320 1120 320 1040
WIRE 320 1120 144 1120
WIRE -656 1136 -848 1136
WIRE -592 1136 -592 1088
WIRE -592 1136 -656 1136
WIRE 0 1136 -64 1136
WIRE -112 1200 -112 1184
WIRE -64 1200 -64 1136
WIRE -64 1200 -112 1200
WIRE -496 1216 -496 1120
WIRE -416 1216 -496 1216
WIRE -304 1216 -304 1104
WIRE -304 1216 -336 1216
WIRE -880 1280 -880 1168
WIRE -816 1280 -880 1280
WIRE -496 1296 -496 1216
WIRE -192 1296 -496 1296
WIRE 144 1296 144 1120
WIRE 144 1296 -112 1296
WIRE -816 1344 -816 1280
FLAG -336 320 0
FLAG 400 176 Vfb
FLAG -496 144 PWM
FLAG -752 16 5v
FLAG -816 1344 0
FLAG -816 928 5v
FLAG -656 1136 Vref
FLAG -112 1184 Vref
FLAG -400 1136 0
FLAG 32 1152 0
FLAG -400 1008 5v
FLAG 96 960 5v
SYMBOL ind2 -512 80 R270
WINDOW 0 32 56 VTop 2
WINDOW 3 4 56 VBottom 2
SYMATTR InstName L1
SYMATTR Value 47µ
SYMATTR Type ind
SYMATTR SpiceLine Ipk=2.5 Rser=0.086 Rpar=39000 Cpar=0 mfg="Bourns, Inc." pn="SRR1260-470M"
SYMBOL schottky -272 80 R270
WINDOW 0 32 32 VTop 2
WINDOW 3 0 32 VBottom 2
SYMATTR InstName D1
SYMATTR Value B540C
SYMATTR Description Diode
SYMATTR Type diode
SYMBOL polcap -768 144 R0
WINDOW 3 24 56 Left 2
SYMATTR Value 4.7µ
SYMATTR InstName C1
SYMATTR Description Capacitor
SYMATTR Type cap
SYMATTR SpiceLine V=6.3 Irms=0 Rser=6 Lser=0 mfg="AVX" pn="TAJA475K006" type="Tantalum"
SYMBOL cap -672 144 R0
SYMATTR InstName C2
SYMATTR Value 0.1µ
SYMATTR SpiceLine V=6.3 Irms=2.55 Rser=0.0464862 Lser=0 mfg="KEMET" pn="C0402C104K9PAC" type="X5R"
SYMBOL polcap 48 144 M0
WINDOW 3 24 56 Left 2
SYMATTR Value 47µ
SYMATTR InstName C3
SYMATTR Description Capacitor
SYMATTR Type cap
SYMATTR SpiceLine V=35 Irms=2.9 Rser=0.03 Lser=0 mfg="KEMET" pn="T521X476M35ATE030" type="Tantalum"
SYMBOL nmos -384 128 R0
SYMATTR InstName M1
SYMATTR Value FDC637AN
SYMBOL voltage -848 112 R0
WINDOW 123 0 0 Left 2
WINDOW 39 0 0 Left 2
SYMATTR InstName V1
SYMATTR Value 5
SYMBOL res 144 48 R0
SYMATTR InstName R1
SYMATTR Value 10
SYMATTR SpiceLine tol=0.1 pwr=100
SYMBOL res 240 64 R0
SYMATTR InstName R2
SYMATTR Value 120K
SYMBOL res 240 176 R0
SYMATTR InstName R3
SYMATTR Value 9.09K
SYMBOL res -512 176 R0
SYMATTR InstName R7
SYMATTR Value 100K
SYMBOL cap -64 144 R0
SYMATTR InstName C4
SYMATTR Value 47µ
SYMBOL ind 144 176 R0
SYMATTR InstName L2
SYMATTR Value 100µ
SYMATTR SpiceLine Rser=0.01
SYMBOL Opamps\\LT1097 32 1056 R0
SYMATTR InstName U1
SYMBOL References\\LT1009 -880 1136 R0
SYMATTR InstName U3
SYMBOL res -320 1200 R90
WINDOW 0 0 56 VBottom 2
WINDOW 3 32 56 VTop 2
SYMATTR InstName R6
SYMATTR Value 10K
SYMBOL res -96 1088 R90
WINDOW 0 0 56 VBottom 2
WINDOW 3 32 56 VTop 2
SYMATTR InstName R8
SYMATTR Value 5.9K
SYMBOL res -96 1280 R90
WINDOW 0 0 56 VBottom 2
WINDOW 3 32 56 VTop 2
SYMATTR InstName R9
SYMATTR Value 4.7K
SYMBOL cap 64 992 R90
WINDOW 0 0 32 VBottom 2
WINDOW 3 32 32 VTop 2
SYMATTR InstName C5
SYMATTR Value 100pF
SYMBOL Opamps\\LT1097 -400 1040 R0
SYMATTR InstName U4
TEXT -880 344 Left 2 !.tran 50m
