Version 4
SHEET 1 880 680
WIRE -752 64 -848 64
WIRE -656 64 -752 64
WIRE -496 64 -656 64
WIRE -336 64 -416 64
WIRE -272 64 -336 64
WIRE 32 64 -208 64
WIRE 160 64 32 64
WIRE 160 112 160 64
WIRE -848 128 -848 64
WIRE -336 128 -336 64
WIRE -752 144 -752 64
WIRE -656 144 -656 64
WIRE 32 144 32 64
WIRE -496 208 -512 208
WIRE -384 208 -416 208
WIRE -848 272 -848 208
WIRE -752 272 -752 208
WIRE -752 272 -848 272
WIRE -656 272 -656 208
WIRE -656 272 -752 272
WIRE -512 272 -512 208
WIRE -512 272 -656 272
WIRE -336 272 -336 224
WIRE -336 272 -512 272
WIRE 32 272 32 208
WIRE 32 272 -336 272
WIRE 160 272 32 272
WIRE 160 272 160 192
WIRE -336 320 -336 272
FLAG -336 320 0
SYMBOL ind2 -512 80 R270
WINDOW 0 32 56 VTop 2
WINDOW 3 4 56 VBottom 2
SYMATTR InstName L1
SYMATTR Value 47µ
SYMATTR Type ind
SYMATTR SpiceLine Ipk=2.5 Rser=0.086 Rpar=39000 Cpar=0 mfg="Bourns, Inc." pn="SRR1260-470M"
SYMBOL schottky -272 80 R270
WINDOW 0 32 32 VTop 2
WINDOW 3 0 32 VBottom 2
SYMATTR InstName D1
SYMATTR Value B540C
SYMATTR Description Diode
SYMATTR Type diode
SYMBOL polcap -768 144 R0
WINDOW 3 24 56 Left 2
SYMATTR Value 4.7µ
SYMATTR InstName C1
SYMATTR Description Capacitor
SYMATTR Type cap
SYMATTR SpiceLine V=6.3 Irms=0 Rser=6 Lser=0 mfg="AVX" pn="TAJA475K006" type="Tantalum"
SYMBOL cap -672 144 R0
SYMATTR InstName C2
SYMATTR Value 0.1µ
SYMATTR SpiceLine V=6.3 Irms=2.55 Rser=0.0464862 Lser=0 mfg="KEMET" pn="C0402C104K9PAC" type="X5R"
SYMBOL polcap 48 144 M0
WINDOW 3 24 56 Left 2
SYMATTR Value 47µ
SYMATTR InstName C3
SYMATTR Description Capacitor
SYMATTR Type cap
SYMATTR SpiceLine V=35 Irms=2.9 Rser=0.03 Lser=0 mfg="KEMET" pn="T521X476M35ATE030" type="Tantalum"
SYMBOL nmos -384 128 R0
SYMATTR InstName M1
SYMATTR Value FDC637AN
SYMBOL voltage -848 112 R0
WINDOW 123 0 0 Left 2
WINDOW 39 0 0 Left 2
SYMATTR InstName V1
SYMATTR Value 5
SYMBOL res 144 96 R0
SYMATTR InstName R1
SYMATTR Value 12
SYMATTR SpiceLine pwr=100
SYMBOL Misc\\signal -400 208 M270
WINDOW 3 24 -12 Left 2
SYMATTR Value PWL REPEAT FOREVER (0 0 8e-6 5 23.7e-6 0) ENDREPEAT
SYMATTR InstName V2
TEXT -880 344 Left 2 !.tran 50m
