Version 4
SHEET 1 880 788
WIRE -752 64 -752 16
WIRE -752 64 -848 64
WIRE -656 64 -752 64
WIRE -560 64 -656 64
WIRE -496 64 -560 64
WIRE -336 64 -416 64
WIRE -272 64 -336 64
WIRE -48 64 -208 64
WIRE 32 64 -48 64
WIRE 160 64 32 64
WIRE 256 64 160 64
WIRE 256 80 256 64
WIRE 160 112 160 64
WIRE -848 128 -848 64
WIRE -336 128 -336 64
WIRE -752 144 -752 64
WIRE -656 144 -656 64
WIRE -432 144 -496 144
WIRE -48 144 -48 64
WIRE 32 144 32 64
WIRE 256 176 256 160
WIRE 400 176 256 176
WIRE -432 192 -432 144
WIRE -432 192 -496 192
WIRE 256 192 256 176
WIRE -432 208 -432 192
WIRE -384 208 -432 208
WIRE -848 272 -848 208
WIRE -752 272 -752 208
WIRE -752 272 -848 272
WIRE -656 272 -656 208
WIRE -656 272 -752 272
WIRE -496 272 -656 272
WIRE -336 272 -336 224
WIRE -336 272 -496 272
WIRE -48 272 -48 208
WIRE -48 272 -336 272
WIRE 32 272 32 208
WIRE 32 272 -48 272
WIRE 160 272 160 192
WIRE 160 272 32 272
WIRE 256 272 160 272
WIRE -336 320 -336 272
WIRE -272 368 -464 368
WIRE 48 368 -48 368
WIRE 208 368 128 368
WIRE -272 448 -480 448
WIRE 48 448 -48 448
WIRE 48 496 48 448
WIRE -272 528 -304 528
WIRE 0 528 -48 528
WIRE -480 576 -480 448
WIRE 0 592 0 528
WIRE 48 592 48 576
WIRE 48 592 0 592
WIRE 48 624 48 592
WIRE -304 640 -304 528
WIRE -304 768 -304 720
WIRE 48 768 48 704
FLAG -336 320 0
FLAG -480 576 0
FLAG 400 176 Vfb
FLAG -464 368 Vfb
FLAG -496 144 PWM
FLAG 208 368 PWM
FLAG -304 768 0
FLAG 48 768 0
FLAG -752 16 5v
FLAG 48 448 5v
DATAFLAG -560 64 ""
SYMBOL ind2 -512 80 R270
WINDOW 0 32 56 VTop 2
WINDOW 3 4 56 VBottom 2
SYMATTR InstName L1
SYMATTR Value 47µ
SYMATTR Type ind
SYMATTR SpiceLine Ipk=2.5 Rser=0.086 Rpar=39000 Cpar=0 mfg="Bourns, Inc." pn="SRR1260-470M"
SYMBOL schottky -272 80 R270
WINDOW 0 32 32 VTop 2
WINDOW 3 0 32 VBottom 2
SYMATTR InstName D1
SYMATTR Value B540C
SYMATTR Description Diode
SYMATTR Type diode
SYMBOL polcap -768 144 R0
WINDOW 3 24 56 Left 2
SYMATTR Value 4.7µ
SYMATTR InstName C1
SYMATTR Description Capacitor
SYMATTR Type cap
SYMATTR SpiceLine V=6.3 Irms=0 Rser=6 Lser=0
SYMBOL cap -672 144 R0
SYMATTR InstName C2
SYMATTR Value 0.1µ
SYMATTR SpiceLine V=6.3 Irms=2.55 Rser=0.0464862 Lser=0 mfg="KEMET" pn="C0402C104K9PAC" type="X5R"
SYMBOL polcap 48 144 M0
WINDOW 3 -45 64 Left 2
SYMATTR Value 470µ
SYMATTR InstName C3
SYMATTR Description Capacitor
SYMATTR Type cap
SYMATTR SpiceLine V=35 Irms=2.9 Rser=0.03 Lser=0
SYMBOL nmos -384 128 R0
SYMATTR InstName M1
SYMATTR Value FDC637AN
SYMBOL voltage -848 112 R0
WINDOW 123 0 0 Left 2
WINDOW 39 0 0 Left 2
SYMATTR InstName V1
SYMATTR Value 5
SYMBOL res 144 96 R0
SYMATTR InstName R1
SYMATTR Value 10
SYMATTR SpiceLine pwr=100
SYMBOL res 240 64 R0
SYMATTR InstName R2
SYMATTR Value 300K
SYMBOL res 240 176 R0
SYMATTR InstName R3
SYMATTR Value 10k
SYMBOL res -320 624 R0
SYMATTR InstName R4
SYMATTR Value 390K
SYMBOL res 32 480 R0
SYMATTR InstName R5
SYMATTR Value 102K
SYMBOL res 32 608 R0
SYMATTR InstName R6
SYMATTR Value 976K
SYMBOL res -512 176 R0
SYMATTR InstName R7
SYMATTR Value 100K
SYMBOL cap -64 144 R0
SYMATTR InstName C4
SYMATTR Value 470µ
SYMBOL res 144 352 R90
WINDOW 0 0 56 VBottom 2
WINDOW 3 32 56 VTop 2
SYMATTR InstName R8
SYMATTR Value 0
SYMBOL SpecialFunctions\\LTC6992-2 -160 448 R0
SYMATTR InstName U2
TEXT -880 344 Left 2 !.tran 50m
TEXT -296 584 Left 2 ;Voltage to PWM generator
