Version 4
SHEET 1 880 2052
WIRE -752 64 -752 16
WIRE -752 64 -848 64
WIRE -656 64 -752 64
WIRE -496 64 -656 64
WIRE -336 64 -416 64
WIRE -272 64 -336 64
WIRE -48 64 -208 64
WIRE 32 64 -48 64
WIRE 160 64 32 64
WIRE 256 64 160 64
WIRE 256 80 256 64
WIRE -848 128 -848 64
WIRE -336 128 -336 64
WIRE -752 144 -752 64
WIRE -656 144 -656 64
WIRE -432 144 -496 144
WIRE -48 144 -48 64
WIRE 32 144 32 64
WIRE 256 176 256 160
WIRE 400 176 256 176
WIRE -432 192 -432 144
WIRE -432 192 -496 192
WIRE 160 192 160 144
WIRE 256 192 256 176
WIRE -432 208 -432 192
WIRE -384 208 -432 208
WIRE -848 272 -848 208
WIRE -752 272 -752 208
WIRE -752 272 -848 272
WIRE -656 272 -656 208
WIRE -656 272 -752 272
WIRE -496 272 -656 272
WIRE -336 272 -336 224
WIRE -336 272 -496 272
WIRE -48 272 -48 208
WIRE -48 272 -336 272
WIRE 32 272 32 208
WIRE 32 272 -48 272
WIRE 160 272 32 272
WIRE 256 272 160 272
WIRE -336 320 -336 272
WIRE -176 688 -416 688
WIRE 192 688 -96 688
WIRE -416 768 -416 688
WIRE -352 768 -416 768
WIRE -240 768 -288 768
WIRE 80 848 80 784
WIRE 96 848 80 848
WIRE 80 880 80 848
WIRE 96 880 96 848
WIRE -512 896 -592 896
WIRE 48 896 -64 896
WIRE 192 912 192 688
WIRE 192 912 112 912
WIRE 240 912 192 912
WIRE 288 912 240 912
WIRE 368 912 288 912
WIRE -320 928 -320 848
WIRE 48 928 -64 928
WIRE -512 944 -512 896
WIRE -416 944 -416 768
WIRE -416 944 -512 944
WIRE -352 944 -416 944
WIRE -240 960 -240 768
WIRE -240 960 -288 960
WIRE -624 976 -800 976
WIRE -464 976 -544 976
WIRE -352 976 -464 976
WIRE 64 976 64 944
WIRE 80 976 80 944
WIRE 80 976 64 976
WIRE 96 976 96 944
WIRE 96 976 80 976
WIRE -64 1008 -64 928
WIRE -464 1024 -464 976
WIRE 80 1040 80 976
WIRE -320 1072 -320 992
WIRE -464 1168 -464 1104
WIRE -784 1472 -784 1408
WIRE -784 1472 -848 1472
WIRE 32 1488 -32 1488
WIRE 176 1488 96 1488
WIRE -368 1536 -368 1488
WIRE -352 1536 -368 1536
WIRE 128 1536 128 1440
WIRE 128 1536 64 1536
WIRE -368 1552 -368 1536
WIRE -352 1552 -352 1536
WIRE -400 1568 -560 1568
WIRE 64 1568 64 1536
WIRE -848 1584 -848 1472
WIRE -272 1584 -336 1584
WIRE -160 1584 -272 1584
WIRE -32 1584 -32 1488
WIRE -32 1584 -80 1584
WIRE 32 1584 -32 1584
WIRE -400 1600 -464 1600
WIRE 176 1600 176 1488
WIRE 176 1600 96 1600
WIRE 256 1600 176 1600
WIRE -624 1616 -816 1616
WIRE -560 1616 -560 1568
WIRE -560 1616 -624 1616
WIRE 32 1616 -32 1616
WIRE -384 1632 -384 1616
WIRE -368 1632 -368 1616
WIRE -368 1632 -384 1632
WIRE -352 1632 -352 1616
WIRE -352 1632 -368 1632
WIRE -368 1648 -368 1632
WIRE -80 1680 -80 1664
WIRE -32 1680 -32 1616
WIRE -32 1680 -80 1680
WIRE -464 1696 -464 1600
WIRE -384 1696 -464 1696
WIRE -272 1696 -272 1584
WIRE -272 1696 -304 1696
WIRE -848 1760 -848 1648
WIRE -784 1760 -848 1760
WIRE -464 1776 -464 1696
WIRE -160 1776 -464 1776
WIRE 176 1776 176 1600
WIRE 176 1776 -80 1776
WIRE -784 1824 -784 1760
FLAG -336 320 0
FLAG 400 176 Vfb
FLAG -496 144 PWM
FLAG -752 16 5v
FLAG -784 1824 0
FLAG -784 1408 5v
FLAG -624 1616 Vref
FLAG -80 1664 Vref
FLAG -368 1648 0
FLAG 64 1632 0
FLAG -368 1488 5v
FLAG 128 1440 5v
FLAG -464 1168 0
FLAG -800 976 5v
FLAG -320 1072 0
FLAG 80 1040 0
FLAG -320 848 5v
FLAG -64 896 Vtri
FLAG 80 784 5v
FLAG -64 1008 Vsine
FLAG 256 1600 Vtri
DATAFLAG 288 912 ""
DATAFLAG 240 912 ""
SYMBOL ind2 -512 80 R270
WINDOW 0 32 56 VTop 2
WINDOW 3 4 56 VBottom 2
SYMATTR InstName L1
SYMATTR Value 47µ
SYMATTR Type ind
SYMATTR SpiceLine Ipk=2.5 Rser=0.086 Rpar=39000 Cpar=0 mfg="Bourns, Inc." pn="SRR1260-470M"
SYMBOL schottky -272 80 R270
WINDOW 0 32 32 VTop 2
WINDOW 3 0 32 VBottom 2
SYMATTR InstName D1
SYMATTR Value B540C
SYMATTR Description Diode
SYMATTR Type diode
SYMBOL polcap -768 144 R0
WINDOW 3 24 56 Left 2
SYMATTR Value 4.7µ
SYMATTR InstName C1
SYMATTR Description Capacitor
SYMATTR Type cap
SYMATTR SpiceLine V=6.3 Irms=0 Rser=6 Lser=0 mfg="AVX" pn="TAJA475K006" type="Tantalum"
SYMBOL cap -672 144 R0
SYMATTR InstName C2
SYMATTR Value 0.1µ
SYMATTR SpiceLine V=6.3 Irms=2.55 Rser=0.0464862 Lser=0 mfg="KEMET" pn="C0402C104K9PAC" type="X5R"
SYMBOL polcap 48 144 M0
WINDOW 3 24 56 Left 2
SYMATTR Value 47µ
SYMATTR InstName C3
SYMATTR Description Capacitor
SYMATTR Type cap
SYMATTR SpiceLine V=35 Irms=2.9 Rser=0.03 Lser=0 mfg="KEMET" pn="T521X476M35ATE030" type="Tantalum"
SYMBOL nmos -384 128 R0
SYMATTR InstName M1
SYMATTR Value FDC637AN
SYMBOL voltage -848 112 R0
WINDOW 123 0 0 Left 2
WINDOW 39 0 0 Left 2
SYMATTR InstName V1
SYMATTR Value 5
SYMBOL res 144 48 R0
SYMATTR InstName R1
SYMATTR Value 10
SYMATTR SpiceLine tol=0.1 pwr=100
SYMBOL res 240 64 R0
SYMATTR InstName R2
SYMATTR Value 120K
SYMBOL res 240 176 R0
SYMATTR InstName R3
SYMATTR Value 9.09K
SYMBOL res -512 176 R0
SYMATTR InstName R7
SYMATTR Value 100K
SYMBOL cap -64 144 R0
SYMATTR InstName C4
SYMATTR Value 47µ
SYMBOL ind 144 176 R0
SYMATTR InstName L2
SYMATTR Value 100µ
SYMATTR SpiceLine Rser=0.01
SYMBOL Opamps\\LT1097 64 1536 R0
SYMATTR InstName U1
SYMBOL References\\LT1009 -848 1616 R0
SYMATTR InstName U3
SYMBOL res -288 1680 R90
WINDOW 0 0 56 VBottom 2
WINDOW 3 32 56 VTop 2
SYMATTR InstName R6
SYMATTR Value 10K
SYMBOL res -64 1568 R90
WINDOW 0 0 56 VBottom 2
WINDOW 3 32 56 VTop 2
SYMATTR InstName R8
SYMATTR Value 5.9K
SYMBOL res -64 1760 R90
WINDOW 0 0 56 VBottom 2
WINDOW 3 32 56 VTop 2
SYMATTR InstName R9
SYMATTR Value 4.7K
SYMBOL cap 96 1472 R90
WINDOW 0 0 32 VBottom 2
WINDOW 3 32 32 VTop 2
SYMATTR InstName C5
SYMATTR Value 100pF
SYMBOL Opamps\\LT1097 -320 896 R0
SYMATTR InstName U2
SYMBOL res -448 1120 R180
WINDOW 0 36 76 Left 2
WINDOW 3 36 40 Left 2
SYMATTR InstName R4
SYMATTR Value 10K
SYMBOL res -640 992 R270
WINDOW 0 32 56 VTop 2
WINDOW 3 -9 45 VBottom 2
SYMATTR InstName R10
SYMATTR Value 10K
SYMBOL res -688 912 R270
WINDOW 0 32 56 VTop 2
WINDOW 3 -9 45 VBottom 2
SYMATTR InstName R5
SYMATTR Value 10K
SYMBOL res -192 704 R270
WINDOW 0 32 56 VTop 2
WINDOW 3 -9 45 VBottom 2
SYMATTR InstName R11
SYMATTR Value 10K
SYMBOL cap -288 752 R90
WINDOW 0 0 32 VBottom 2
WINDOW 3 32 32 VTop 2
SYMATTR InstName C6
SYMATTR Value 100p
SYMBOL Comparators\\LT1719 80 848 R0
SYMATTR InstName U5
SYMBOL Comparators\\LT1719 -368 1520 R0
SYMATTR InstName U7
TEXT -880 344 Left 2 !.tran 500m
